Cenario_2/Tabelas_02/SE_Power_elem_kVA_FP_1.0..txt

CIRCUIT ELEMENT POWER FLOW

(Power Flow into element from indicated Bus)

Power Delivery Elements

  Bus     Phase     kW     +j   kvar         kVA         PF

ELEMENT = "Vsource.SOURCE"
99            1      -117.9 +j   -475.7      490.1       0.2406
99            2      -117.9 +j   -475.7      490.1       0.2406
99            3      -117.9 +j   -475.7      490.1       0.2406
   TERMINAL TOTAL .  -353.7 +j  -1427.1     1470.3       0.2406
99            0         0.0 +j      0.0        0.0       1.0000
99            0         0.0 +j      0.0        0.0       1.0000
99            0         0.0 +j      0.0        0.0       1.0000
   TERMINAL TOTAL .     0.0 +j      0.0        0.0       1.0000

ELEMENT = "Line.TRECHO_99-1"
99            1       117.9 +j    475.7      490.1       0.2406
99            2       117.9 +j    475.7      490.1       0.2406
99            3       117.9 +j    475.7      490.1       0.2406
   TERMINAL TOTAL .   353.7 +j   1427.1     1470.3       0.2406
1             1      -117.8 +j   -475.6      490.0       0.2405
1             2      -117.8 +j   -475.6      490.0       0.2405
1             3      -117.8 +j   -475.6      490.0       0.2405
   TERMINAL TOTAL .  -353.5 +j  -1426.9     1470.0       0.2405

ELEMENT = "Line.TRECHO_1-2"
1             1      -209.3 +j    320.7      383.0      -0.5467
1             2      -209.3 +j    320.7      383.0      -0.5467
1             3      -209.3 +j    320.7      383.0      -0.5467
   TERMINAL TOTAL .  -628.0 +j    962.0     1148.9      -0.5467
2             1       209.4 +j   -320.6      382.9      -0.5469
2             2       209.4 +j   -320.6      382.9      -0.5469
2             3       209.4 +j   -320.6      382.9      -0.5469
   TERMINAL TOTAL .   628.2 +j   -961.7     1148.7      -0.5469

ELEMENT = "Line.TRECHO_2-6"
2             1      -667.4 +j    103.6      675.4      -0.9882
2             2      -667.4 +j    103.6      675.4      -0.9882
2             3      -667.4 +j    103.6      675.4      -0.9882
   TERMINAL TOTAL . -2002.3 +j    310.9     2026.3      -0.9882
6             1       668.0 +j   -103.4      675.9      -0.9882
6             2       668.0 +j   -103.4      675.9      -0.9882
6             3       668.0 +j   -103.4      675.9      -0.9882
   TERMINAL TOTAL .  2004.0 +j   -310.3     2027.8      -0.9882

ELEMENT = "Line.TRECHO_6-7"
6             1      -746.5 +j     66.3      749.4      -0.9961
6             2      -746.5 +j     66.3      749.4      -0.9961
6             3      -746.5 +j     66.3      749.4      -0.9961
   TERMINAL TOTAL . -2239.5 +j    198.8     2248.3      -0.9961
7             1       747.1 +j    -66.2      750.1      -0.9961
7             2       747.1 +j    -66.2      750.1      -0.9961
7             3       747.1 +j    -66.2      750.1      -0.9961
   TERMINAL TOTAL .  2241.4 +j   -198.5     2250.2      -0.9961

ELEMENT = "Line.TRECHO_1-5"
1             1       196.3 +j     93.0      217.2       0.9038
1             2       196.3 +j     93.0      217.2       0.9038
1             3       196.3 +j     93.0      217.2       0.9038
   TERMINAL TOTAL .   589.0 +j    279.0      651.7       0.9038
5             1      -196.3 +j    -93.0      217.2       0.9037
5             2      -196.3 +j    -93.0      217.2       0.9037
5             3      -196.3 +j    -93.0      217.2       0.9037
   TERMINAL TOTAL .  -588.8 +j   -278.9      651.6       0.9037

ELEMENT = "Line.TRECHO_2-3"
2             1       327.2 +j    155.0      362.0       0.9037
2             2       327.2 +j    155.0      362.0       0.9037
2             3       327.2 +j    155.0      362.0       0.9037
   TERMINAL TOTAL .   981.5 +j    464.9     1086.0       0.9037
3             1      -327.1 +j   -155.0      362.0       0.9037
3             2      -327.1 +j   -155.0      362.0       0.9037
3             3      -327.1 +j   -155.0      362.0       0.9037
   TERMINAL TOTAL .  -981.4 +j   -464.9     1086.0       0.9037

ELEMENT = "Line.TRECHO_3-4"
3             1       130.9 +j     62.0      144.8       0.9037
3             2       130.9 +j     62.0      144.8       0.9037
3             3       130.9 +j     62.0      144.8       0.9037
   TERMINAL TOTAL .   392.6 +j    186.0      434.4       0.9037
4             1      -130.9 +j    -62.0      144.8       0.9037
4             2      -130.9 +j    -62.0      144.8       0.9037
4             3      -130.9 +j    -62.0      144.8       0.9037
   TERMINAL TOTAL .  -392.6 +j   -185.9      434.4       0.9037

ELEMENT = "Transformer.TR1"
1             1       130.9 +j     62.0      144.8       0.9038
1             2       130.9 +j     62.0      144.8       0.9038
1             3       130.9 +j     62.0      144.8       0.9038
1             0         0.0 +j      0.0        0.0       1.0000
   TERMINAL TOTAL .   392.6 +j    185.9      434.4       0.9038
BT-TR1        1      -130.3 +j    -55.5      141.7       0.9200
BT-TR1        2      -130.3 +j    -55.5      141.7       0.9200
BT-TR1        3      -130.3 +j    -55.5      141.7       0.9200
BT-TR1        0         0.0 +j      0.0        0.0       1.0000
   TERMINAL TOTAL .  -391.0 +j   -166.6      425.0       0.9200

ELEMENT = "Transformer.TR2"
2             1       130.9 +j     62.0      144.8       0.9037
2             2       130.9 +j     62.0      144.8       0.9037
2             3       130.9 +j     62.0      144.8       0.9037
2             0         0.0 +j      0.0        0.0       1.0000
   TERMINAL TOTAL .   392.6 +j    185.9      434.4       0.9037
BT-TR2        1      -130.3 +j    -55.5      141.7       0.9200
BT-TR2        2      -130.3 +j    -55.5      141.7       0.9200
BT-TR2        3      -130.3 +j    -55.5      141.7       0.9200
BT-TR2        0         0.0 +j      0.0        0.0       1.0000
   TERMINAL TOTAL .  -391.0 +j   -166.6      425.0       0.9200

ELEMENT = "Transformer.TR3"
3             1       196.3 +j     93.0      217.2       0.9037
3             2       196.3 +j     93.0      217.2       0.9037
3             3       196.3 +j     93.0      217.2       0.9037
3             0         0.0 +j      0.0        0.0       1.0000
   TERMINAL TOTAL .   588.8 +j    278.9      651.6       0.9037
BT-TR3        1      -195.5 +j    -83.3      212.5       0.9200
BT-TR3        2      -195.5 +j    -83.3      212.5       0.9200
BT-TR3        3      -195.5 +j    -83.3      212.5       0.9200
BT-TR3        0         0.0 +j      0.0        0.0       1.0000
   TERMINAL TOTAL .  -586.5 +j   -249.9      637.5       0.9200

ELEMENT = "Transformer.TR4"
4             1       130.9 +j     62.0      144.8       0.9037
4             2       130.9 +j     62.0      144.8       0.9037
4             3       130.9 +j     62.0      144.8       0.9037
4             0         0.0 +j      0.0        0.0       1.0000
   TERMINAL TOTAL .   392.6 +j    185.9      434.4       0.9037
BT-TR4        1      -130.3 +j    -55.5      141.7       0.9200
BT-TR4        2      -130.3 +j    -55.5      141.7       0.9200
BT-TR4        3      -130.3 +j    -55.5      141.7       0.9200
BT-TR4        0         0.0 +j      0.0        0.0       1.0000
   TERMINAL TOTAL .  -391.0 +j   -166.6      425.0       0.9200

ELEMENT = "Transformer.TR5"
5             1       196.3 +j     93.0      217.2       0.9037
5             2       196.3 +j     93.0      217.2       0.9037
5             3       196.3 +j     93.0      217.2       0.9037
5             0         0.0 +j      0.0        0.0       1.0000
   TERMINAL TOTAL .   588.8 +j    278.9      651.6       0.9037
BT-TR5        1      -195.5 +j    -83.3      212.5       0.9200
BT-TR5        2      -195.5 +j    -83.3      212.5       0.9200
BT-TR5        3      -195.5 +j    -83.3      212.5       0.9200
BT-TR5        0         0.0 +j      0.0        0.0       1.0000
   TERMINAL TOTAL .  -586.5 +j   -249.9      637.5       0.9200

ELEMENT = "Transformer.TR6"
6             1        78.5 +j     37.2       86.9       0.9038
6             2        78.5 +j     37.2       86.9       0.9038
6             3        78.5 +j     37.2       86.9       0.9038
6             0         0.0 +j      0.0        0.0       1.0000
   TERMINAL TOTAL .   235.5 +j    111.5      260.6       0.9038
BT-TR6        1       -78.2 +j    -33.3       85.0       0.9200
BT-TR6        2       -78.2 +j    -33.3       85.0       0.9200
BT-TR6        3       -78.2 +j    -33.3       85.0       0.9200
BT-TR6        0         0.0 +j      0.0        0.0       1.0000
   TERMINAL TOTAL .  -234.6 +j    -99.9      255.0       0.9200

ELEMENT = "Transformer.TR7"
7             1        58.9 +j     27.9       65.2       0.9038
7             2        58.9 +j     27.9       65.2       0.9038
7             3        58.9 +j     27.9       65.2       0.9038
7             0         0.0 +j      0.0        0.0       1.0000
   TERMINAL TOTAL .   176.6 +j     83.6      195.5       0.9038
BT-TR7        1       -58.7 +j    -25.0       63.8       0.9200
BT-TR7        2       -58.7 +j    -25.0       63.8       0.9200
BT-TR7        3       -58.7 +j    -25.0       63.8       0.9200
BT-TR7        0         0.0 +j      0.0        0.0       1.0000
   TERMINAL TOTAL .  -176.0 +j    -75.0      191.3       0.9200

ELEMENT = "Transformer.TR_AC1"
TR_ACOPL1     1       808.7 +j      0.0      808.7       1.0000
TR_ACOPL1     2       808.7 +j      0.0      808.7       1.0000
TR_ACOPL1     3       808.7 +j      0.0      808.7       1.0000
TR_ACOPL1     0         0.0 +j      0.0        0.0       1.0000
   TERMINAL TOTAL .  2426.1 +j      0.0     2426.1       1.0000
7             1      -806.0 +j     38.3      806.9      -0.9989
7             2      -806.0 +j     38.3      806.9      -0.9989
7             3      -806.0 +j     38.3      806.9      -0.9989
7             0         0.0 +j      0.0        0.0       1.0000
   TERMINAL TOTAL . -2418.1 +j    114.9     2420.8      -0.9989

= = = = = = = = = = = = = = = = = = =  = = = = = = = = = = =  = =

Power Conversion Elements

  Bus     Phase     kW   +j  kvar         kVA         PF

ELEMENT = "Load.LOAD_TR1"
BT-TR1        1     130.3 +j   55.5      141.7       0.9200
BT-TR1        2     130.3 +j   55.5      141.7       0.9200
BT-TR1        3     130.3 +j   55.5      141.7       0.9200
BT-TR1        0       0.0 +j    0.0        0.0       1.0000
  TERMINAL TOTAL  .   391.0 +j    166.6      425.0       0.9200

ELEMENT = "Load.LOAD_TR2"
BT-TR2        1     130.3 +j   55.5      141.7       0.9200
BT-TR2        2     130.3 +j   55.5      141.7       0.9200
BT-TR2        3     130.3 +j   55.5      141.7       0.9200
BT-TR2        0       0.0 +j    0.0        0.0       1.0000
  TERMINAL TOTAL  .   391.0 +j    166.6      425.0       0.9200

ELEMENT = "Load.LOAD_TR3"
BT-TR3        1     195.5 +j   83.3      212.5       0.9200
BT-TR3        2     195.5 +j   83.3      212.5       0.9200
BT-TR3        3     195.5 +j   83.3      212.5       0.9200
BT-TR3        0       0.0 +j    0.0        0.0       1.0000
  TERMINAL TOTAL  .   586.5 +j    249.9      637.5       0.9200

ELEMENT = "Load.LOAD_TR4"
BT-TR4        1     130.3 +j   55.5      141.7       0.9200
BT-TR4        2     130.3 +j   55.5      141.7       0.9200
BT-TR4        3     130.3 +j   55.5      141.7       0.9200
BT-TR4        0       0.0 +j    0.0        0.0       1.0000
  TERMINAL TOTAL  .   391.0 +j    166.6      425.0       0.9200

ELEMENT = "Load.LOAD_TR5"
BT-TR5        1     195.5 +j   83.3      212.5       0.9200
BT-TR5        2     195.5 +j   83.3      212.5       0.9200
BT-TR5        3     195.5 +j   83.3      212.5       0.9200
BT-TR5        0       0.0 +j    0.0        0.0       1.0000
  TERMINAL TOTAL  .   586.5 +j    249.9      637.5       0.9200

ELEMENT = "Load.LOAD_TR6"
BT-TR6        1      78.2 +j   33.3       85.0       0.9200
BT-TR6        2      78.2 +j   33.3       85.0       0.9200
BT-TR6        3      78.2 +j   33.3       85.0       0.9200
BT-TR6        0       0.0 +j    0.0        0.0       1.0000
  TERMINAL TOTAL  .   234.6 +j     99.9      255.0       0.9200

ELEMENT = "Load.LOAD_TR7"
BT-TR7        1      58.7 +j   25.0       63.8       0.9200
BT-TR7        2      58.7 +j   25.0       63.8       0.9200
BT-TR7        3      58.7 +j   25.0       63.8       0.9200
BT-TR7        0       0.0 +j    0.0        0.0       1.0000
  TERMINAL TOTAL  .   176.0 +j     75.0      191.3       0.9200

ELEMENT = "PVSystem.SFV_1"
TR_ACOPL1     1    -808.7 +j   -0.0      808.7       1.0000
TR_ACOPL1     2    -808.7 +j   -0.0      808.7       1.0000
TR_ACOPL1     3    -808.7 +j   -0.0      808.7       1.0000
TR_ACOPL1     0       0.0 +j    0.0        0.0       1.0000
  TERMINAL TOTAL  . -2426.1 +j     -0.0     2426.1       1.0000


Total Circuit Losses =   23.2 +j  252.9
